<?xml version="1.0" encoding="UTF-8"?>

<!-- generated on 2025-01-26 11:41:58 by Eclipse SUMO duarouter Version 1.21.0
<duarouterConfiguration xmlns:xsi="http://www.w3.org/2001/XMLSchema-instance" xsi:noNamespaceSchemaLocation="http://sumo.dlr.de/xsd/duarouterConfiguration.xsd">

    <input>
        <net-file value="361/../kamppi.net.xml"/>
        <route-files value="361/../360/demo_360.rou.alt.gz"/>
        <weight-files value="361/../360/dump_500.0.xml"/>
    </input>

    <output>
        <output-file value="361/demo_361.rou.gz"/>
        <exit-times value="False"/>
    </output>

    <processing>
        <max-alternatives value="4"/>
        <with-taz value="False"/>
        <routing-algorithm value="dijkstra"/>
        <weights.expand value="true"/>
        <gawron.beta value="0.9"/>
        <gawron.a value="0.5"/>
        <keep-all-routes value="False"/>
        <logit.beta value="0.15"/>
        <logit.gamma value="1.0"/>
    </processing>

    <time>
        <begin value="0"/>
    </time>

    <report>
        <verbose value="False"/>
        <no-warnings value="False"/>
        <ignore-errors value="False"/>
        <no-step-log value="true"/>
    </report>

    <random_number>
        <random value="False"/>
    </random_number>

</duarouterConfiguration>
-->

<routes xmlns:xsi="http://www.w3.org/2001/XMLSchema-instance" xsi:noNamespaceSchemaLocation="http://sumo.dlr.de/xsd/routes_file.xsd">
    <vType id="type1" length="5.00" maxSpeed="40.00" accel="0.4" decel="4.8" sigma="0.5"/>
    <vehicle id="test_trip_0" type="type1" depart="0.00">
        <routeDistribution last="0">
            <route cost="483.64" probability="0.99995253" edges="572656879 195828017#0 122950927#0 -333061573#2 -81527787#1 -333061574#0 -81527789#0 1039345572#0"/>
            <route cost="488.98" probability="0.00000003" edges="572656879 195828017#0 122950927#0 30568275#0 81522820#1 332399561#2 127104869#0 23025219#0 86533504 86533509#0 1039345572#0"/>
            <route cost="506.74" probability="0.00004743" edges="572656879 195828017#0 122950927#0 30568275#0 81522820#1 114554764#2 -81527787#1 -333061574#0 -81527789#0 1039345572#0"/>
            <route cost="518.47" probability="0.00000001" edges="572656879 195828017#0 122950927#0 30568275#0 81522820#1 332399561#2 -314642995#0 -81527789#0 1039345572#0"/>
        </routeDistribution>
    </vehicle>
    <vehicle id="test_trip_1" type="type1" depart="0.09">
        <routeDistribution last="1">
            <route cost="1631.52" probability="0.50462149" edges="29872531 8014829#0 8014829#1 30001902 195828013 36729028#1 28408160#0 -36729030 123911189#0 25614338#0 77615451#0 77615451#1 26692016 30528320#0 194388451#0"/>
            <route cost="1466.11" probability="0.22056045" edges="29872531 8014829#0 8014829#1 30001902 195828013 36729028#1 29064946#0 42919373#1 217644146 15245482 -36729030 123911189#0 25614338#0 77615451#0 77615451#1 26692016 30528320#0 194388451#0"/>
            <route cost="1748.59" probability="0.17599259" edges="29872531 8014829#0 8014829#1 30001902 195828013 122950927#0 30903129#0 42919373#1 217644146 15245482 -36729030 123911189#0 25614338#0 77615451#0 77615451#1 26692016 30528320#0 194388451#0"/>
            <route cost="1789.92" probability="0.09882547" edges="29872531 8014829#0 8014829#1 30001902 195828013 122950927#0 30903129#0 42919373#1 217644146 30955822 4236349 18385008#0 -36729030 123911189#0 25614338#0 77615451#0 77615451#1 26692016 30528320#0 194388451#0"/>
        </routeDistribution>
    </vehicle>
    <vehicle id="test_trip_2" type="type1" depart="0.18">
        <routeDistribution last="0">
            <route cost="368.79" probability="0.99990108" edges="62212739#0 36729015#1 234100501#2 -36729017 122962417"/>
            <route cost="408.95" probability="0.00000001" edges="62212739#0 81522820#1 332399561#2 314642995#1 114554779#1 126894678#1 126894678#4 122962417"/>
            <route cost="424.36" probability="0.00009891" edges="62212739#0 36729015#1 37293912#1 36729010#1 36726221#0 -36729017 122962417"/>
        </routeDistribution>
    </vehicle>
    <vehicle id="test_trip_3" type="type1" depart="0.27">
        <routeDistribution last="1">
            <route cost="581.98" probability="0.25154744" edges="30903129#0 -42919373#0 30568275#0 81522820#1 332399561#2 127104869#0 -314403237#1 -126894682#1 -126894676#0 122957398 -126897923#0"/>
            <route cost="511.42" probability="0.26603732" edges="30903129#0 21081120#1 62212739#0 81522820#1 332399561#2 127104869#0 -314403237#1 -126894682#1 -126894676#0 122957398 -126897923#0"/>
            <route cost="840.38" probability="0.19640736" edges="30903129#0 -42919373#0 30568275#0 36729015#1 -37293912#0 -114554802#2 114554779#1 -126894678#0 -126894676#0 122957398 -126897923#0"/>
            <route cost="504.47" probability="0.28600788" edges="30903129#0 21081120#1 62212739#0 81522820#1 332399561#2 314642995#1 114554779#1 -126894678#0 -126894676#0 122957398 -126897923#0"/>
        </routeDistribution>
    </vehicle>
    <vehicle id="test_trip_4" type="type1" depart="0.36">
        <routeDistribution last="0">
            <route cost="944.61" probability="0.99999998" edges="30260452 37142312 122964118#0 62212736#2 62212739#0 81522820#1 114554764#2 572656879 122948858#0 122949520#1"/>
            <route cost="1260.10" probability="0.00000001" edges="30260452 37142312 122964118#0 36726223#1 -217644146 -76334538 -42919373#0 -333061573#2 572656879 122948858#0 122949520#1"/>
            <route cost="1393.98" probability="0.00000001" edges="30260452 37142312 122964118#0 62212736#2 -36729011#0 -42919373#0 -333061573#2 572656879 122948858#0 122949520#1"/>
        </routeDistribution>
    </vehicle>
    <vehicle id="test_trip_5" type="type1" depart="0.46">
        <routeDistribution last="0">
            <route cost="348.53" probability="0.99870383" edges="80702170#1 21564980#1 23025219#0 86533504 86533509#0 -86533506#1 81527789#1 333061574#1 572656872#0"/>
            <route cost="469.45" probability="0.00026642" edges="80702170#1 -37282869#0 62201341#1 24479686#0 -86533506#1 81527789#1 333061574#1 572656872#0"/>
            <route cost="497.69" probability="0.00000131" edges="80702170#1 21564980#1 -314403237#1 15090664 -114554779#0 -314642995#0 81527789#1 333061574#1 572656872#0"/>
            <route cost="503.67" probability="0.00102844" edges="80702170#1 21564980#1 -314403237#1 15090664 114554759#1 315526581#2 114554764#2 572656872#0"/>
        </routeDistribution>
    </vehicle>
    <vehicle id="test_trip_6" type="type1" depart="0.55">
        <routeDistribution last="0">
            <route cost="966.03" probability="0.96691718" edges="-344789082 36729009 317000783 317000784#0 28408160#0 30528321 -81924137#0 37290604 -82410880#0 37287290 23180033 342534666#1 37280749"/>
            <route cost="2550.29" probability="0.03308282" edges="-344789082 36729009 317000783 317000784#0 29064946#0 42919373#1 217644146 15245482 30528321 -81924137#0 37290604 -82410880#0 37287290 23180033 342534666#1 37280749"/>
        </routeDistribution>
    </vehicle>
    <vehicle id="test_trip_7" type="type1" depart="0.64">
        <routeDistribution last="0">
            <route cost="1515.64" probability="0.26732811" edges="37280749 123635330 37260960 -342534666#0 -28842830 123635329 81924134 30001902 195828013 122950927#0 30568275#0 81522820#1 332399561#2 127104869#0 -101154827 -21564980#0"/>
            <route cost="1489.74" probability="0.25675032" edges="37280749 123635330 37260960 -342534666#0 -28842830 123635329 81924134 30001902 195828013 122950927#0 30568275#0 81522820#1 332399561#2 -314642995#0 -81527789#0 25521359 210000435 80702170#1 -21564980#0"/>
            <route cost="1223.47" probability="0.26328059" edges="37280749 123635330 37260960 -342534666#0 23180032 8014829#1 30001902 195828013 122950927#0 -333061573#2 -81527787#1 -333061574#0 -81527789#0 25521359 210000435 80702170#1 -21564980#0"/>
            <route cost="1453.40" probability="0.21264099" edges="37280749 -28228803#0 8014829#0 8014829#1 30001902 195828013 122950927#0 -333061573#2 -81527787#1 -333061574#0 -81527789#0 25521359 210000435 80702170#1 -21564980#0"/>
        </routeDistribution>
    </vehicle>
    <vehicle id="test_trip_8" type="type1" depart="0.73">
        <routeDistribution last="0">
            <route cost="644.79" probability="0.89045224" edges="30001902 195828013 122950927#0 30568275#0 81522820#1 332399561#2 314642995#1 -114554759#0"/>
            <route cost="866.19" probability="0.00029373" edges="30001902 195828013 122950927#0 30568275#0 36729015#1 234100501#2 -36729017 -186631612#0 -126894678#3 -114554800 -114554759#0"/>
            <route cost="589.91" probability="0.10395766" edges="30001902 195828013 122950927#0 -333061573#2 -81527787#1 -333061574#0 122948203 314642995#1 -114554759#0"/>
            <route cost="836.81" probability="0.00529636" edges="30001902 195828013 122950927#0 30568275#0 36729015#1 -37293912#0 -114554802#2 -114554759#0"/>
        </routeDistribution>
    </vehicle>
    <vehicle id="test_trip_9" type="type1" depart="0.82">
        <routeDistribution last="2">
            <route cost="1081.56" probability="0.36336952" edges="-36729010#0 62212739#0 81522820#1 114554764#2 572656879 195828017#0 36729028#1 28408160#0 30528321 -81924137#0 37290604 -82410880#0 37287290 23180033 342534666#1 37280749 28228803#1"/>
            <route cost="1891.21" probability="0.19776055" edges="-36729010#0 -36729011#0 -21081120#0 28408160#0 30528321 -81924137#0 37290604 -82410880#0 37287290 23180033 342534666#1 37280749 28228803#1"/>
            <route cost="2571.78" probability="0.20827912" edges="-36729010#0 36729011#1 29186154#1 310792148 36726223#1 15245482 30528321 -81924137#0 37290604 -82410880#0 37287290 23180033 342534666#1 37280749 28228803#1"/>
            <route cost="1197.29" probability="0.23059081" edges="-36729010#0 62212739#0 81522820#1 114554764#2 572656879 122948858#0 114555768#1 30001816 342717767#1 8014829#1 -37290602 -82410880#0 37287290 23180033 342534666#1 37280749 28228803#1"/>
        </routeDistribution>
    </vehicle>
    <vehicle id="test_trip_10" type="type1" depart="0.91">
        <routeDistribution last="0">
            <route cost="1471.12" probability="0.26721867" edges="37287290 23180032 8014829#1 30001902 195828013 122950927#0 30903129#0 42919373#1 217644146 30955822 -42919365 -233999572 36726223#1"/>
            <route cost="1875.07" probability="0.26489349" edges="37287290 -28842830 123635329 81924134 30001902 195828013 36729028#1 28408160#0 -76335649 -233999572 36726223#1"/>
            <route cost="1497.28" probability="0.24188772" edges="37287290 -28842830 123635329 81924134 30001902 195828013 122950927#0 30903129#0 42919373#1 217644146 30955822 -42919365 -233999572 36726223#1"/>
            <route cost="1667.89" probability="0.22600013" edges="37287290 23180032 8014829#1 30001902 195828013 122950927#0 30568275#0 36729015#1 37293912#1 29186154#1 310792148 36726223#1"/>
        </routeDistribution>
    </vehicle>
    <vehicle id="test_trip_11" type="type1" depart="1.00">
        <routeDistribution last="0">
            <route cost="547.55" probability="0.85652144" edges="42412490 370070636 61059606#0 30263579 33887120 62201341#1 24479686#0 -86533506#1 81527789#1 333061574#1 572656872#0 30903129#0 42919373#1"/>
            <route cost="1304.46" probability="0.00027482" edges="42412490 370070636 61059606#0 30263579 33887120 62201341#1 24479686#0 1039345572#0 30956554#0 122946787#0 195828017#0 36729028#1 29064946#0 42919373#1"/>
            <route cost="1195.30" probability="0.00062230" edges="42412490 370070636 61059606#0 30263579 33887120 62201341#1 24479686#0 1039345572#0 30956554#0 122946787#0 195828017#0 122950927#0 30903129#0 42919373#1"/>
            <route cost="1465.47" probability="0.14258145" edges="42412490 370070636 61059606#0 30263579 33887120 62201341#1 24479686#0 1039345572#0 30956554#0 122946787#0 195828017#0 122950927#0 30568275#0 36729015#1 37293912#1 29186154#1 310792148 36726223#1 -217644146 -76334538 42919373#1"/>
        </routeDistribution>
    </vehicle>
    <vehicle id="test_trip_12" type="type1" depart="1.09">
        <routeDistribution last="0">
            <route cost="95.09" probability="1.00000000" edges="18385008#0 -36729030 123911189#0 25614338#0 77615451#0"/>
        </routeDistribution>
    </vehicle>
    <vehicle id="test_trip_13" type="type1" depart="1.18">
        <routeDistribution last="0">
            <route cost="846.72" probability="0.99616111" edges="122949522 -122949522 122949520#0 122949520#1 195828013 122950927#0 30568275#0"/>
            <route cost="717.43" probability="0.00364723" edges="122949522 -122949524#0 30001818 30001902 195828013 122950927#0 30568275#0"/>
            <route cost="1225.01" probability="0.00002377" edges="122949522 -122949522 122949520#0 122949520#1 195828013 36729028#1 29064946#0 -42919373#0 30568275#0"/>
            <route cost="1146.56" probability="0.00016789" edges="122949522 -122949524#0 30001816 342717767#1 8014829#1 30001902 195828013 122950927#0 30568275#0"/>
        </routeDistribution>
    </vehicle>
    <vehicle id="test_trip_14" type="type1" depart="1.27">
        <routeDistribution last="1">
            <route cost="1747.72" probability="0.43300047" edges="-44960714#1 -126895740 -196972961 33887120 62201341#1 24479686#0 1039345572#0 30956554#0 122946787#0 122948858#0 114555768#1 30001816 342717767#1"/>
            <route cost="1751.95" probability="0.24997782" edges="-44960714#1 -126895740 -196972961 33887120 62201341#1 24479686#0 1039345572#0 30956554#0 122946787#0 122948858#0 -122949520#0 122949522 -122949524#0 30001816 342717767#1"/>
            <route cost="1621.22" probability="0.20803106" edges="-44960714#1 44960714#0 42412490 370070636 61059606#0 30263579 33887120 62201341#1 24479686#0 1039345572#0 30956554#0 122946787#0 122948858#0 -122949520#0 122949522 -122949524#0 30001816 342717767#1"/>
            <route cost="1629.47" probability="0.10899066" edges="-44960714#1 44960714#0 42412490 370070636 61059606#0 30263579 33887120 62201341#1 24479686#0 1039345572#0 30956554#0 122946787#0 122948858#0 114555768#1 30001816 342717767#1"/>
        </routeDistribution>
    </vehicle>
    <vehicle id="test_trip_15" type="type1" depart="1.36">
        <routeDistribution last="0">
            <route cost="222.71" probability="1.00000000" edges="-97129661 -36729030 123911189#0 25614338#0 77615451#0 77615451#1 27132254#0 77615981#0 77615982 37137191#0 38156742"/>
        </routeDistribution>
    </vehicle>
    <vehicle id="test_trip_16" type="type1" depart="1.46">
        <routeDistribution last="0">
            <route cost="385.13" probability="1.00000000" edges="-333061573#2 -81527787#1 -333061574#0 -81527789#0 25521359 210000435 80702170#1 37282869#1"/>
        </routeDistribution>
    </vehicle>
    <vehicle id="test_trip_17" type="type1" depart="1.55">
        <routeDistribution last="0">
            <route cost="1017.47" probability="0.99999999" edges="30528384#0 30529424 4236349 18385008#0 30528321 -81924137#0 37290604 -82410880#0 37287290 23180033 342534666#1 -23180036 128916509"/>
            <route cost="1762.56" probability="0.00000001" edges="30528384#0 30529424 4236349 18385008#0 -76335649 -217644146 -76334538 -42919373#0 -333061573#2 572656879 122948858#0 -122949520#0 122949522 -122949524#0 30001816 342717767#1 8014829#1 -37290602 -82410880#0 37287290 23180033 342534666#1 -23180036 128916509"/>
        </routeDistribution>
    </vehicle>
    <vehicle id="test_trip_18" type="type1" depart="1.64">
        <routeDistribution last="0">
            <route cost="326.00" probability="1.00000000" edges="-47796503 -122949524#0 30001818"/>
        </routeDistribution>
    </vehicle>
    <vehicle id="test_trip_19" type="type1" depart="1.73">
        <routeDistribution last="2">
            <route cost="723.81" probability="0.27187648" edges="-36729030 18385008#0 -76335649 -233999572 62212736#2 62212739#0 81522820#1 332399561#2 127104869#0 23025219#0 86533504 15103120 210000435 80702168#1 24479683 42107700#1 739515975 746490375 60710546#0 61059623 58077051"/>
            <route cost="677.16" probability="0.25401237" edges="-36729030 18385008#0 -76335649 -233999572 62212736#2 62212739#0 81522820#1 332399561#2 127104869#0 23025219#0 86533504 15103120 210000435 80702168#1 22486710 -196972961 42107700#1 739515975 746490375 60710546#0 61059623 58077051"/>
            <route cost="801.40" probability="0.24454120" edges="-36729030 18385008#0 -76335649 -217644146 -76334538 -42919373#0 -333061573#2 -81527787#1 -333061574#0 -81527789#0 25521359 210000435 80702168#1 24479683 42107700#1 739515975 746490375 60710546#0 61059623 58077051"/>
            <route cost="867.65" probability="0.22956995" edges="-36729030 18385008#0 -76335649 -217644146 -76334538 21081120#1 62212739#0 81522820#1 332399561#2 -314642995#0 -81527789#0 25521359 210000435 80702168#1 22486710 -196972961 42107700#1 739515975 746490375 60710546#0 61059623 58077051"/>
        </routeDistribution>
    </vehicle>
    <vehicle id="test_trip_20" type="type1" depart="1.82">
        <routeDistribution last="0">
            <route cost="103.59" probability="1.00000000" edges="124448646 84235075#0 61059606#0 30263579"/>
        </routeDistribution>
    </vehicle>
    <vehicle id="test_trip_21" type="type1" depart="1.91">
        <routeDistribution last="1">
            <route cost="643.01" probability="0.27492753" edges="37293912#1 -36729010#0 62212739#0 81522820#1 114554764#2 -81527787#1 -333061574#0 -81527789#0 25521359 210000435 80702168#1 24479683 42107700#1 739515975 746490375 60710546#0 61059623 58077051 58077048#0"/>
            <route cost="676.03" probability="0.24477180" edges="37293912#1 -29186154#0 -37293912#0 315526581#2 332399561#2 -314642995#0 -81527789#0 25521359 210000435 80702168#1 22486710 -196972961 42107700#1 739515975 746490375 60710546#0 61059623 58077051 58077048#0"/>
            <route cost="573.70" probability="0.24860778" edges="37293912#1 -36729010#0 62212739#0 81522820#1 332399561#2 127104869#0 23025219#0 86533504 15103120 210000435 80702168#1 24479683 42107700#1 739515975 746490375 60710546#0 61059623 58077051 58077048#0"/>
            <route cost="655.99" probability="0.23169290" edges="37293912#1 -36729010#0 62212739#0 81522820#1 114554764#2 -81527787#1 -333061574#0 -81527789#0 25521359 210000435 80702168#1 22486710 -196972961 42107700#1 739515975 746490375 60710546#0 61059623 58077051 58077048#0"/>
        </routeDistribution>
    </vehicle>
    <vehicle id="test_trip_22" type="type1" depart="2.00">
        <routeDistribution last="0">
            <route cost="727.27" probability="0.73971584" edges="124448646 84235075#0 61059606#0 30263579 33887120 62201341#1 24479686#0 1039345572#0 30956554#0 122946787#0 195828017#0 122950927#0 30568275#0 36729015#1 234100501#2"/>
            <route cost="600.76" probability="0.03816967" edges="124448646 84235075#0 61059606#0 30263579 33887120 80702170#1 21564980#1 -314403237#1 15090664 114554759#1 114554802#3 234100501#2"/>
            <route cost="789.12" probability="0.01104011" edges="124448646 84235075#0 61059606#0 30263579 33887120 62201341#1 24479686#0 1039345572#0 30956554#0 122946787#0 195828017#0 36729028#1 29064946#0 21081120#1 36729011#1 -29186154#0 234100501#2"/>
            <route cost="580.31" probability="0.21107439" edges="124448646 84235075#0 61059606#0 30263579 33887120 62201341#1 24479686#0 -86533506#1 122948203 314642995#1 114554759#1 114554802#3 234100501#2"/>
        </routeDistribution>
    </vehicle>
    <vehicle id="test_trip_23" type="type1" depart="2.09">
        <routeDistribution last="0">
            <route cost="765.42" probability="1.00000000" edges="37290604 -82410880#0 37287290 23180033 342534666#1 37280749"/>
        </routeDistribution>
    </vehicle>
    <vehicle id="test_trip_24" type="type1" depart="2.18">
        <routeDistribution last="3">
            <route cost="1618.80" probability="0.31675549" edges="-126894678#0 126894682#1 15101958 23025219#0 86533504 86533509#0 1039345572#0 30956554#0 122946787#0 122948858#0 114555768#1 30001816 342717767#1 8014829#1 -37290602 -82410880#0 37287290 23180033 342534666#1 37280749"/>
            <route cost="1611.50" probability="0.24322781" edges="-126894678#0 126894682#1 15101958 23025219#0 86533504 86533509#0 1039345572#0 30956554#0 122946787#0 122948858#0 -122949520#0 122949522 -122949524#0 30001816 342717767#1 8014829#1 -37290602 -82410880#0 37287290 23180033 342534666#1 37280749"/>
            <route cost="1646.03" probability="0.24220077" edges="-126894678#0 126894682#1 15090664 114554759#1 114554802#3 37293912#1 29186154#1 310792148 36726223#1 15245482 30528321 -81924137#0 37290604 -82410880#0 37287290 23180033 342534666#1 37280749"/>
            <route cost="1699.37" probability="0.19781593" edges="-126894678#0 126894676#1 126894678#1 15223910#0 315526581#2 114554764#2 572656879 122948858#0 114555768#1 30001816 342717767#1 8014829#1 -37290602 -82410880#0 37287290 23180033 342534666#1 37280749"/>
        </routeDistribution>
    </vehicle>
    <vehicle id="test_trip_25" type="type1" depart="2.27">
        <routeDistribution last="0">
            <route cost="468.44" probability="0.99403377" edges="30568275#0 81522820#1 114554764#2 572656879 195828017#0 36729028#1 28408160#0 -36729030 123911189#0 25614338#0 77615451#0 77615451#1"/>
            <route cost="1681.76" probability="0.00000401" edges="30568275#0 36729015#1 37293912#1 -36729010#0 -36729011#0 42919373#1 217644146 15245482 -36729030 123911189#0 25614338#0 77615451#0 77615451#1"/>
            <route cost="776.40" probability="0.00043709" edges="30568275#0 36729015#1 37293912#1 29186154#1 310792148 36726223#1 15245482 -36729030 123911189#0 25614338#0 77615451#0 77615451#1"/>
            <route cost="843.04" probability="0.00552513" edges="30568275#0 81522820#1 114554764#2 572656872#0 30903129#0 42919373#1 217644146 15245482 -36729030 123911189#0 25614338#0 77615451#0 77615451#1"/>
        </routeDistribution>
    </vehicle>
    <vehicle id="test_trip_26" type="type1" depart="2.36">
        <routeDistribution last="2">
            <route cost="1617.39" probability="0.50966484" edges="-126894676#0 122957398 -126897923#0 7715843 126894676#1 126894678#1 15223910#0 114554802#3 37293912#1 29186154#1 310792148 36726223#1 30955822 77615981#0 77615982"/>
            <route cost="707.28" probability="0.31562292" edges="-126894676#0 122957398 -126897923#0 7715843 126894682#1 15090664 114554759#1 114554802#3 37293912#1 29186154#1 310792148 36726223#1 30955822 77615981#0 77615982"/>
            <route cost="1603.13" probability="0.09686006" edges="-126894676#0 122957398 -126897923#0 7715843 126894682#1 15090664 114554759#1 315526581#2 114554764#2 572656872#0 30903129#0 42919373#1 217644146 30955822 77615981#0 77615982"/>
            <route cost="1846.26" probability="0.07785219" edges="-126894676#0 122957398 -126897923#0 7715843 126894676#1 126894678#1 15223910#0 315526581#2 114554764#2 572656872#0 30903129#0 42919373#1 217644146 30955822 77615981#0 77615982"/>
        </routeDistribution>
    </vehicle>
    <vehicle id="test_trip_27" type="type1" depart="2.46">
        <routeDistribution last="0">
            <route cost="278.21" probability="1.00000000" edges="30568275#0 81522820#1 114554764#2 572656879 195828017#0"/>
        </routeDistribution>
    </vehicle>
    <vehicle id="test_trip_28" type="type1" depart="2.55">
        <routeDistribution last="1">
            <route cost="384.63" probability="0.51339438" edges="36729010#1 -36726220#0 -36729010#0 62212739#0 81522820#1 114554764#2 -81527787#1 9776916"/>
            <route cost="493.50" probability="0.22040271" edges="36729010#1 -36726220#0 -29186154#0 -37293912#0 315526581#2 114554764#2 -81527787#1 9776916"/>
            <route cost="469.35" probability="0.18206664" edges="36729010#1 29400781 28408345 310792148 62212736#2 62212739#0 81522820#1 114554764#2 -81527787#1 9776916"/>
            <route cost="437.14" probability="0.08413627" edges="36729010#1 -36726220#0 -36729010#0 62212739#0 81522820#1 332399561#2 -314642995#0 81527789#1 9776916"/>
        </routeDistribution>
    </vehicle>
    <vehicle id="test_trip_29" type="type1" depart="2.64">
        <routeDistribution last="0">
            <route cost="443.53" probability="0.70335743" edges="1039345572#0 30956554#0 122946787#0 195828017#0 122950927#0 30568275#0 36729015#1 37293912#1 36729010#1 -36726220#0"/>
            <route cost="470.63" probability="0.18526008" edges="1039345572#0 30956554#0 122946787#0 195828017#0 122950927#0 30903129#0 21081120#1 36729011#1 36729010#1 -36726220#0"/>
            <route cost="531.53" probability="0.08475231" edges="1039345572#0 30956554#0 122946787#0 195828017#0 36729028#1 29064946#0 21081120#1 36729011#1 36729010#1 -36726220#0"/>
            <route cost="487.45" probability="0.02663017" edges="1039345572#0 30529498 -86533506#1 122948203 314642995#1 114554759#1 114554802#3 37293912#1 36729010#1 -36726220#0"/>
        </routeDistribution>
    </vehicle>
    <vehicle id="test_trip_30" type="type1" depart="2.73">
        <routeDistribution last="0">
            <route cost="1020.82" probability="0.61155354" edges="-122949522 122949520#0 122949520#1 195828013 122950927#0 30568275#0 36729015#1 37293912#1 -36729010#0"/>
            <route cost="1075.92" probability="0.02711707" edges="-122949522 122949520#0 114555768#1 30001818 30001902 195828013 122950927#0 30568275#0 36729015#1 37293912#1 -36729010#0"/>
            <route cost="1625.11" probability="0.23311514" edges="-122949522 122949520#0 122949520#1 195828013 122950927#0 30903129#0 21081120#1 36729011#1 -36729010#0"/>
            <route cost="1210.49" probability="0.12821425" edges="-122949522 122949520#0 122949520#1 195828013 36729028#1 29064946#0 21081120#1 36729011#1 -36729010#0"/>
        </routeDistribution>
    </vehicle>
    <vehicle id="test_trip_31" type="type1" depart="2.82">
        <routeDistribution last="0">
            <route cost="603.27" probability="0.41801395" edges="28903078 30260452 37142312 122964118#0 62212736#2 62212739#0 81522820#1 332399561#2 127104869#0 23025219#0 86533504 15103120 210000435 80702168#1 24479683 42107700#1 739515975 746490375 60710546#0 61059623"/>
            <route cost="578.75" probability="0.23216132" edges="28903078 30260452 37142312 122964118#0 62212736#2 62212739#0 81522820#1 332399561#2 127104869#0 23025219#0 86533504 15103120 210000435 80702168#1 22486710 -196972961 42107700#1 739515975 746490375 60710546#0 61059623"/>
            <route cost="644.10" probability="0.18889019" edges="28903078 30260452 37142312 122964118#0 62212736#2 62212739#0 81522820#1 332399561#2 -314642995#0 -81527789#0 25521359 210000435 80702168#1 22486710 -196972961 42107700#1 739515975 746490375 60710546#0 61059623"/>
            <route cost="658.14" probability="0.16093454" edges="28903078 30260452 37142312 122964118#0 62212736#2 62212739#0 81522820#1 114554764#2 -81527787#1 -333061574#0 -81527789#0 25521359 210000435 80702168#1 24479683 42107700#1 739515975 746490375 60710546#0 61059623"/>
        </routeDistribution>
    </vehicle>
    <vehicle id="test_trip_32" type="type1" depart="2.91">
        <routeDistribution last="1">
            <route cost="667.63" probability="0.71945036" edges="122964118#0 62212736#2 62212739#0 81522820#1 332399561#2 127104869#0 23025219#0 86533504 15103120 210000435 80702170#1 -37282869#0"/>
            <route cost="588.29" probability="0.28044216" edges="122964118#0 62212736#2 62212739#0 81522820#1 114554764#2 -81527787#1 -333061574#0 -81527789#0 25521359 210000435 80702170#1 -37282869#0"/>
            <route cost="599.21" probability="0.00010746" edges="122964118#0 62212736#2 62212739#0 81522820#1 332399561#2 -314642995#0 -81527789#0 25521359 210000435 80702170#1 -37282869#0"/>
            <route cost="783.04" probability="0.00000002" edges="122964118#0 62212736#2 62212739#0 81522820#1 332399561#2 127104869#0 -101154827 -37282869#0"/>
        </routeDistribution>
    </vehicle>
    <vehicle id="test_trip_33" type="type1" depart="3.00">
        <routeDistribution last="0">
            <route cost="967.59" probability="0.71470896" edges="29872531 8014829#0 8014829#1 30001902 195828013 122950927#0 -333061573#2 -81527787#1 -333061574#0 -81527789#0 25521359"/>
            <route cost="1380.31" probability="0.06006102" edges="29872531 -114557570 -342534666#0 -28842830 123635329 81924134 30001902 195828013 122950927#0 -333061573#2 -81527787#1 -333061574#0 -81527789#0 25521359"/>
            <route cost="1071.43" probability="0.11446865" edges="29872531 8014829#0 8014829#1 30001902 195828013 122950927#0 30568275#0 81522820#1 332399561#2 -314642995#0 -81527789#0 25521359"/>
            <route cost="1075.06" probability="0.11076138" edges="29872531 8014829#0 8014829#1 30001902 195828013 122950927#0 30568275#0 81522820#1 114554764#2 -81527787#1 -333061574#0 -81527789#0 25521359"/>
        </routeDistribution>
    </vehicle>
    <vehicle id="test_trip_34" type="type1" depart="3.09">
        <routeDistribution last="3">
            <route cost="552.10" probability="0.56197507" edges="114554779#1 126894678#1 15223910#0 315526581#2 114554764#2 572656872#0 30903129#0 21081120#1"/>
            <route cost="1001.72" probability="0.19244016" edges="114554779#1 126894678#1 15223910#0 114554802#3 37293912#1 29186154#1 310792148 36726223#1 -217644146 -76334538 21081120#1"/>
            <route cost="1765.46" probability="0.09141530" edges="114554779#1 -114554800 114554759#1 315526581#2 114554764#2 572656872#0 30903129#0 21081120#1"/>
            <route cost="675.71" probability="0.15416948" edges="114554779#1 126894678#1 15223910#0 114554802#3 37293912#1 -36729010#0 -36729011#0 21081120#1"/>
        </routeDistribution>
    </vehicle>
    <vehicle id="test_trip_35" type="type1" depart="3.18">
        <routeDistribution last="0">